power-flow-agent/results/ieee14/2026-09-23/gpt-5.6-sol/plan_act_nogate__matched/traces/06_case14-ambiguous-023-s0.transcript.txt
==============================================================================
TRANSCRIPT  plan_act_nogate  |  openrouter:openai/gpt-5.6-sol  |  case14  |  case14-ambiguous-023-s0  run 0
==============================================================================
date: 2026-09-23   seed: 0   difficulty: ambiguous   tool variant: load_split

[system]   (hash 7da5e2a37ec4, from methods/plan_act_nogate/method.json prompt_files)
You are a power system power-flow analysis assistant. You help the user complete power system analysis tasks from natural-language requests.

## What you can do
You complete tasks by calling tool functions:
1. Load an IEEE standard test system (14, 30, 57, 118, 300 buses)
2. Run AC power flow
3. Modify the load at a bus and re-solve
4. Disconnect or reconnect a line and re-solve
5. Query the network status
6. Run an N-1 contingency analysis (disconnect branches one at a time and rank the worst cases)
7. Generate remedial-action suggestions (what-if load shedding or voltage adjustment) to reduce violation risk

## Key rules
- Never fabricate any numerical result. Every voltage, power, loss, or loading value must come from a tool return value.
- If a tool reports an error or a non-converged power flow, say so explicitly and do not report numbers for that state.
- If the request is ambiguous, state the interpretation you are using.
- Bus and line identifiers in the request are MATPOWER 1-based ids; pass them to the tools as given, unless the request itself states a different indexing convention for that identifier (e.g. "(0-based)"), in which case convert it to the MATPOWER 1-based id before calling any tool.
- After a network modification, re-solve before reporting any value.
- Always reply in English.

## Reply format
After each analysis, reply in this structure:
1. One-sentence summary
2. Key numbers (total load, total generation, total losses, voltage range) taken from the tool outputs
3. Violations, if any
4. Suggested next step

[user]   (complete message, stored at run time)
Load the IEEE 14-bus system and set the active load at bus 5 (1-based) to 5.9 MW.

[tools available to the model]   (function-calling schema, --tool-variant load_split; enum values and defaults as sent)
  load_case(case_name: string* in {case14, case30, case57, case118, case300})  Load IEEE test case.
  run_powerflow()  Run power flow on current case.
  disconnect_line(from_bus: integer*, to_bus: integer*)  Disconnect line/branch between two buses and recompute.
  reconnect_line(from_bus: integer*, to_bus: integer*)  Reconnect line/branch between two buses and recompute.
  get_most_loaded_branch()  Get most loaded branch.
  run_n1_contingency(top_k: integer (default 5), criteria: string in {max_violations, max_overload, min_voltage} (default max_violations), max_candidates: integer (default 0))  Run N-1 contingency analysis.
  recommend_remedial_actions(max_actions: integer (default 5), allow_load_shed: boolean (default True), allow_voltage_control: boolean (default True), include_best_comparison: boolean (default True))  Recommend remedial actions.
  apply_remedial_action(action_index: integer*, confirmed: boolean (default False))  Apply one remedial action by index.
  get_status()  Get current network status.
  generate_plot(plot_type: string* in {voltage_heatmap, flow_diagram, violation_overview, comparison})  Generate one plot.
  set_active_load(bus_id: integer*, p_mw: number*)  Set a bus's active load (MW) and recompute. Use this when the request states only an active-power value. This tool has no reactive-power argument: the bus's present reactive load is always left unchanged. If the request also states a reactive-power value, use set_load instead.
  set_load(bus_id: integer*, p_mw: number*, q_mvar: number*)  Set a bus's active and reactive load (MW, Mvar) and recompute. Use this only when the request states both values. If the request states only an active-power value, use set_active_load instead -- do not invent a reactive-power value here to fill this in.

[planner system prompt]   (hash 76ea681e520a; as assembled today from methods/plan_act; the planning call sends this plus the request)
You are the planner of a power-system analysis agent. You cannot call tools yourself. Given the user's request, output ONLY a JSON object of the form
{"plan": [{"tool": "<tool_name>", "args": {...}}, ...]}
listing, in execution order, every tool call needed to answer the request. Use only the tools below with exactly these argument names (* = required); where an argument lists allowed values, use one of them verbatim. Bus and line identifiers in the request are MATPOWER 1-based ids; pass them to the tools as given, unless the request itself states a different indexing convention for that identifier (e.g. "(0-based)"), in which case convert it to the MATPOWER 1-based id. Do not include explanations, markdown, or any text outside the JSON.

Available tools:
- load_case(case_name: string in {case14, case30, case57, case118, case300}*): Load IEEE test case.
- run_powerflow((none)): Run power flow on current case.
- disconnect_line(from_bus: integer*, to_bus: integer*): Disconnect line/branch between two buses and recompute.
- reconnect_line(from_bus: integer*, to_bus: integer*): Reconnect line/branch between two buses and recompute.
- get_most_loaded_branch((none)): Get most loaded branch.
- run_n1_contingency(top_k: integer, criteria: string in {max_violations, max_overload, min_voltage}, max_candidates: integer): Run N-1 contingency analysis.
- recommend_remedial_actions(max_actions: integer, allow_load_shed: boolean, allow_voltage_control: boolean, include_best_comparison: boolean): Recommend remedial actions.
- apply_remedial_action(action_index: integer*, confirmed: boolean): Apply one remedial action by index.
- get_status((none)): Get current network status.
- generate_plot(plot_type: string in {voltage_heatmap, flow_diagram, violation_overview, comparison}*): Generate one plot.
- set_active_load(bus_id: integer*, p_mw: number*): Set a bus's active load (MW) and recompute. Use this when the request states only an active-power value. This tool has no reactive-power argument: the bus's present reactive load is always left unchanged. If the request also states a reactive-power value, use set_load instead.
- set_load(bus_id: integer*, p_mw: number*, q_mvar: number*): Set a bus's active and reactive load (MW, Mvar) and recompute. Use this only when the request states both values. If the request states only an active-power value, use set_active_load instead -- do not invent a reactive-power value here to fill this in.

[planner output]
[
 {
  "tool": "load_case",
  "args": {
   "case_name": "case14"
  }
 },
 {
  "tool": "set_active_load",
  "args": {
   "bus_id": 5,
   "p_mw": 5.9
  }
 }
]

--- round 1 ---
[assistant]   (608 in / 44 out tokens, 1.8 s)
{"plan":[{"tool":"load_case","args":{"case_name":"case14"}},{"tool":"set_active_load","args":{"bus_id":5,"p_mw":5.9}}]}

--- round 2 ---
[tool load_case]   (gate: not applied)
{"case_name": "case14", "n_buses": 14, "n_generators": 5, "n_lines": 20, "n_loads": 11, "total_load_mw": 271.57878989810837, "total_gen_capacity_mw": 772.4000000000001}
[tool set_active_load]   (gate: pass)
{"case_name": "case14", "converged": true, "bus_voltages": [{"bus_id": 1, "vm_pu": 1.06, "va_deg": 0.0, "is_violation": true, "violation_type": "overvoltage"}, {"bus_id": 2, "vm_pu": 1.0449999999999995, "va_deg": -5.348987022055935, "is_violation": false, "violation_type": null}, {"bus_id": 3, "vm_pu": 1.01, "va_deg": -13.587498915198992, "is_violation": false, "violation_type": null}, {"bus_id": 4, "vm_pu": 1.0170118039289644, "va_deg": -10.852409856663291, "is_violation": false, "violation_type": null}, {"bus_id": 5, "vm_pu": 1.0190598255496035, "va_deg": -9.194089834593585, "is_violation": false, "violation_type": null}, {"bus_id": 6, "vm_pu": 1.0700000000000003, "va_deg": -14.730270720196735, "is_violation": true, "violation_type": "overvoltage"}, {"bus_id": 7, "vm_pu": 1.060831694927668, "va_deg": -13.930755073407417, "is_violation": true, "violation_type": "overvoltage"}, {"bus_id": 8, "vm_pu": 1.09, "va_deg": -13.930755073407418, "is_violation": true, "violation_type": "overvoltage"}, {"bus_id": 9, "vm_pu": 1.054830848733802, "va_deg": -15.526654173129804, "is_violation": true, "violation_type": "overvoltage"}, {"bus_id": 10, "vm_pu": 1.0504758313487714, "va_deg": -15.655491868113232, "is_violation": true, "violation_type": "overvoltage"}, {"bus_id": 11, "vm_pu": 1.0563800119028874, "va_deg": -15.335282702168515, "is_violation": true, "violation_type": "overvoltage"}, {"bus_id": 12, "vm_pu": 1.055738150236218, "va_deg": -15.55805390444149, "is_violation": true, "violation_type": "overvoltage"}, {"bus_id": 13, "vm_pu": 1.0506910273137366, "va_deg": -15.651238642688238, "is_violation": true, "violation_type": "overvoltage"}, {"bus_id": 14, "vm_pu": 1.0354397831142947, "va_deg": -16.55934455021668, "is_violation": false, "violation_type": null}], "line_flows": [{"line_id": 0, "from_bus": 1, "to_bus": 2, "p_from_mw": 167.9695191282552, "q_from_mvar": -22.95761168507571, "loading_percent": 1.6155055401808796, "is_violation": false}, {"line_id": 1, "from_bus": 1, "to_bus": 5, "p_from_mw": 78.9691156101489, "q_from_mvar": 3.785089026715596, "loading_percent": 0.7535571184864304, "is_violation": false}, {"line_id": 2, "from_bus": 2, "to_bus": 3, "p_from_mw": 77.70843408259347, "q_from_mvar": 3.1405687095679355, "loading_percent": 0.751745888308344, "is_violation": false}, {"line_id": 3, "from_bus": 2, "to_bus": 4, "p_from_mw": 57.90086253215703, "q_from_mvar": -1.5726534543101456, "loading_percent": 0.5598783637833479, "is_violation": false}, {"line_id": 4, "from_bus": 2, "to_bus": 5, "p_from_mw": 42.11036967899441, "q_from_mvar": 1.2869918309370554, "loading_percent": 0.40873026963207393, "is_violation": false}, {"line_id": 5, "from_bus": 3, "to_bus": 4, "p_from_mw": -26.019003239677907, "q_from_mvar": 6.084865033612156, "loading_percent": 0.2702184167475371, "is_violation": false}, {"line_id": 6, "from_bus": 4, "to_bus": 5, "p_from_mw": -65.84712975225374, "q_from_mvar": 16.95985911630767, "loading_percent": 0.6753413868999567, "is_violation": false}, {"line_id": 7, "from_bus": 6, "to_bus": 11, "p_from_mw": 7.747902966183765, "q_from_mvar": 3.658846296795817, "loading_percent": 0.0808872010966168, "is_violation": false}, {"line_id": 8, "from_bus": 6, "to_bus": 12, "p_from_mw": 7.529801499670135, "q_from_mvar": 2.3936491397270045, "loading_percent": 0.07458798657735592, "is_violation": false}, {"line_id": 9, "from_bus": 6, "to_bus": 13, "p_from_mw": 17.4753526787514, "q_from_mvar": 7.097480057919691, "loading_percent": 0.17805776310681706, "is_violation": false}, {"line_id": 10, "from_bus": 9, "to_bus": 10, "p_from_mw": 4.376323381817348, "q_from_mvar": 3.792307270906713, "loading_percent": 0.05545278633550802, "is_violation": false}, {"line_id": 11, "from_bus": 9, "to_bus": 14, "p_from_mw": 8.900599116409612, "q_from_mvar": 3.446314686373856, "loading_percent": 0.09139781371104895, "is_violation": false}, {"line_id": 12, "from_bus": 10, "to_bus": 11, "p_from_mw": -3.893903575293553, "q_from_mvar": -1.556683053138923, "loading_percent": 0.040323586551820424, "is_violation": false}, {"line_id": 13, "from_bus": 12, "to_bus": 13, "p_from_mw": 1.732898842176241, "q_from_mvar": 0.7512443205448358, "loading_percent": 0.01807085902838125, "is_violation": false}, {"line_id": 14, "from_bus": 13, "to_bus": 14, "p_from_mw": 5.829027757125804, "q_from_mvar": 1.780768819809665, "loading_percent": 0.058595141167531735, "is_violation": false}, {"line_id": 100000, "from_bus": 4, "to_bus": 7, "p_from_mw": 28.328513366932945, "q_from_mvar": -9.65278350915297, "loading_percent": 0.2972456229393232, "is_violation": false}, {"line_id": 100001, "from_bus": 4, "to_bus": 9, "p_from_mw": 16.220961844712583, "q_from_mvar": -0.33492040872661255, "loading_percent": 0.1611417099490831, "is_violation": false}, {"line_id": 100002, "from_bus": 5, "to_bus": 6, "p_from_mw": 44.786196664225244, "q_from_mvar": 12.32284548731693, "loading_percent": 0.46042216277164844, "is_violation": false}, {"line_id": 100003, "from_bus": 7, "to_bus": 8, "p_from_mw": 2.5002242366212426e-14, "q_from_mvar": -17.566087146210272, "loading_percent": 0.16726048490773263, "is_violation": false}, {"line_id": 100004, "from_bus": 7, "to_bus": 9, "p_from_mw": 28.328513366549213, "q_from_mvar": 6.1811970818820114, "loading_percent": 0.27608442518752274, "is_violation": false}], "total_generation_mw": 285.0996046464391, "total_load_mw": 270.22323174588706, "total_loss_mw": 14.87637290661846, "voltage_violations": [{"bus_id": 1, "vm_pu": 1.06, "va_deg": 0.0, "is_violation": true, "violation_type": "overvoltage"}, {"bus_id": 6, "vm_pu": 1.0700000000000003, "va_deg": -14.730270720196735, "is_violation": true, "violation_type": "overvoltage"}, {"bus_id": 7, "vm_pu": 1.060831694927668, "va_deg": -13.930755073407417, "is_violation": true, "violation_type": "overvoltage"}, {"bus_id": 8, "vm_pu": 1.09, "va_deg": -13.930755073407418, "is_violation": true, "violation_type": "overvoltage"}, {"bus_id": 9, "vm_pu": 1.054830848733802, "va_deg": -15.526654173129804, "is_violation": true, "violation_type": "overvoltage"}, {"bus_id": 10, "vm_pu": 1.0504758313487714, "va_deg": -15.655491868113232, "is_violation": true, "violation_type": "overvoltage"}, {"bus_id": 11, "vm_pu": 1.0563800119028874, "va_deg": -15.335282702168515, "is_violation": true, "violation_type": "overvoltage"}, {"bus_id": 12, "vm_pu": 1.055738150236218, "va_deg": -15.55805390444149, "is_violation": true, "violation_type": "overvoltage"}, {"bus_id": 13, "vm_pu": 1.0506910273137366, "va_deg": -15.651238642688238, "is_violation": true, "violation_type": "overvoltage"}], "thermal_violations": [], "summary_text": "", "solver_backend": "pandapower", "llm_prompt": null, "llm_response": null, "resolved_bus_id": 5, "assumption": "reactive load at this bus is unchanged from its present value"}

--- round 3 ---
[assistant final]   (3367 in / 310 out tokens, 5.8 s)
The IEEE 14-bus system was loaded, bus 5 active load was set to **5.9 MW** with reactive load unchanged, and the AC power flow converged.

**Key numbers**
- Total load: **270.223 MW**
- Total generation: **285.100 MW**
- Total active-power losses: **14.876 MW**
- Voltage range: **1.010 p.u.** at bus 3 to **1.090 p.u.** at bus 8
- Bus 5 voltage: **1.0191 p.u.**

**Violations**
- Overvoltage at buses **1, 6, 7, 8, 9, 10, 11, 12, and 13**
- No thermal violations

**Suggested next step**
Run a remedial-action analysis using generator-voltage adjustments to reduce the overvoltage violations.
